! RHF DZ LARGEPRINT PRINTBASIS PRINTGAP ALLPOP Opt AnFreq NumFreq bohrs

* xyz 0 1 
C       -0.5596525601     -0.0428051827     -0.0000000929                 
H       -0.9294543768     -1.0597015995      0.2448233811                 
H       -0.9294533829      0.6776673958      0.7582457726                 
H       -0.9294507939      0.2536197353     -1.0030712327                 
H        0.5497482590     -0.0428064112      0.0000017434                 
*
